
Circuit: Filtro notch 

Doing analysis at TEMP = 27.000000 and TNOM = 27.000000


No. of Data Rows : 201
                                 Filtro notch 
                                 AC Analysis  Tue Jul  7 19:46:30  2015
--------------------------------------------------------------------------------
Index   frequency       vm(out)         
--------------------------------------------------------------------------------
0	1.000000e+01	9.997550e-01	
1	1.011579e+01	9.997493e-01	
2	1.023293e+01	9.997435e-01	
3	1.035142e+01	9.997375e-01	
4	1.047129e+01	9.997314e-01	
5	1.059254e+01	9.997251e-01	
6	1.071519e+01	9.997186e-01	
7	1.083927e+01	9.997119e-01	
8	1.096478e+01	9.997051e-01	
9	1.109175e+01	9.996981e-01	
10	1.122018e+01	9.996908e-01	
11	1.135011e+01	9.996834e-01	
12	1.148154e+01	9.996757e-01	
13	1.161449e+01	9.996679e-01	
14	1.174898e+01	9.996598e-01	
15	1.188502e+01	9.996515e-01	
16	1.202264e+01	9.996429e-01	
17	1.216186e+01	9.996341e-01	
18	1.230269e+01	9.996250e-01	
19	1.244515e+01	9.996157e-01	
20	1.258925e+01	9.996061e-01	
21	1.273503e+01	9.995962e-01	
22	1.288250e+01	9.995860e-01	
23	1.303167e+01	9.995755e-01	
24	1.318257e+01	9.995647e-01	
25	1.333521e+01	9.995536e-01	
26	1.348963e+01	9.995421e-01	
27	1.364583e+01	9.995303e-01	
28	1.380384e+01	9.995182e-01	
29	1.396368e+01	9.995056e-01	
30	1.412538e+01	9.994927e-01	
31	1.428894e+01	9.994793e-01	
32	1.445440e+01	9.994656e-01	
33	1.462177e+01	9.994514e-01	
34	1.479108e+01	9.994367e-01	
35	1.496236e+01	9.994216e-01	
36	1.513561e+01	9.994060e-01	
37	1.531087e+01	9.993899e-01	
38	1.548817e+01	9.993732e-01	
39	1.566751e+01	9.993560e-01	
40	1.584893e+01	9.993383e-01	
41	1.603245e+01	9.993199e-01	
42	1.621810e+01	9.993010e-01	
43	1.640590e+01	9.992814e-01	
44	1.659587e+01	9.992611e-01	
45	1.678804e+01	9.992401e-01	
46	1.698244e+01	9.992184e-01	
47	1.717908e+01	9.991959e-01	
48	1.737801e+01	9.991726e-01	
49	1.757924e+01	9.991485e-01	
50	1.778279e+01	9.991236e-01	
51	1.798871e+01	9.990977e-01	
52	1.819701e+01	9.990709e-01	
53	1.840772e+01	9.990431e-01	
54	1.862087e+01	9.990142e-01	

Index   frequency       vm(out)         
--------------------------------------------------------------------------------
55	1.883649e+01	9.989843e-01	
56	1.905461e+01	9.989532e-01	
57	1.927525e+01	9.989210e-01	
58	1.949845e+01	9.988875e-01	
59	1.972423e+01	9.988526e-01	
60	1.995262e+01	9.988164e-01	
61	2.018366e+01	9.987788e-01	
62	2.041738e+01	9.987396e-01	
63	2.065380e+01	9.986988e-01	
64	2.089296e+01	9.986563e-01	
65	2.113489e+01	9.986120e-01	
66	2.137962e+01	9.985659e-01	
67	2.162719e+01	9.985177e-01	
68	2.187762e+01	9.984675e-01	
69	2.213095e+01	9.984151e-01	
70	2.238721e+01	9.983603e-01	
71	2.264644e+01	9.983030e-01	
72	2.290868e+01	9.982432e-01	
73	2.317395e+01	9.981805e-01	
74	2.344229e+01	9.981149e-01	
75	2.371374e+01	9.980461e-01	
76	2.398833e+01	9.979741e-01	
77	2.426610e+01	9.978985e-01	
78	2.454709e+01	9.978191e-01	
79	2.483133e+01	9.977356e-01	
80	2.511886e+01	9.976479e-01	
81	2.540973e+01	9.975556e-01	
82	2.570396e+01	9.974584e-01	
83	2.600160e+01	9.973560e-01	
84	2.630268e+01	9.972479e-01	
85	2.660725e+01	9.971337e-01	
86	2.691535e+01	9.970131e-01	
87	2.722701e+01	9.968855e-01	
88	2.754229e+01	9.967503e-01	
89	2.786121e+01	9.966070e-01	
90	2.818383e+01	9.964549e-01	
91	2.851018e+01	9.962933e-01	
92	2.884032e+01	9.961213e-01	
93	2.917427e+01	9.959382e-01	
94	2.951209e+01	9.957429e-01	
95	2.985383e+01	9.955343e-01	
96	3.019952e+01	9.953112e-01	
97	3.054921e+01	9.950722e-01	
98	3.090295e+01	9.948158e-01	
99	3.126079e+01	9.945404e-01	
100	3.162278e+01	9.942439e-01	
101	3.198895e+01	9.939241e-01	
102	3.235937e+01	9.935787e-01	
103	3.273407e+01	9.932048e-01	
104	3.311311e+01	9.927992e-01	
105	3.349654e+01	9.923582e-01	
106	3.388442e+01	9.918777e-01	
107	3.427678e+01	9.913528e-01	
108	3.467369e+01	9.907779e-01	
109	3.507519e+01	9.901465e-01	
110	3.548134e+01	9.894510e-01	
111	3.589219e+01	9.886825e-01	
112	3.630781e+01	9.878305e-01	

Index   frequency       vm(out)         
--------------------------------------------------------------------------------
113	3.672823e+01	9.868826e-01	
114	3.715352e+01	9.858238e-01	
115	3.758374e+01	9.846365e-01	
116	3.801894e+01	9.832991e-01	
117	3.845918e+01	9.817855e-01	
118	3.890451e+01	9.800637e-01	
119	3.935501e+01	9.780942e-01	
120	3.981072e+01	9.758278e-01	
121	4.027170e+01	9.732025e-01	
122	4.073803e+01	9.701399e-01	
123	4.120975e+01	9.665388e-01	
124	4.168694e+01	9.622683e-01	
125	4.216965e+01	9.571557e-01	
126	4.265795e+01	9.509706e-01	
127	4.315191e+01	9.434011e-01	
128	4.365158e+01	9.340181e-01	
129	4.415704e+01	9.222209e-01	
130	4.466836e+01	9.071544e-01	
131	4.518559e+01	8.875797e-01	
132	4.570882e+01	8.616731e-01	
133	4.623810e+01	8.267188e-01	
134	4.677351e+01	7.786649e-01	
135	4.731513e+01	7.115761e-01	
136	4.786301e+01	6.172907e-01	
137	4.841724e+01	4.863216e-01	
138	4.897788e+01	3.121606e-01	
139	4.954502e+01	1.001121e-01	
140	5.011872e+01	1.263240e-01	
141	5.069907e+01	3.348245e-01	
142	5.128614e+01	5.039023e-01	
143	5.188000e+01	6.301324e-01	
144	5.248075e+01	7.207553e-01	
145	5.308844e+01	7.852381e-01	
146	5.370318e+01	8.314912e-01	
147	5.432503e+01	8.652037e-01	
148	5.495409e+01	8.902449e-01	
149	5.559043e+01	9.092066e-01	
150	5.623413e+01	9.238306e-01	
151	5.688529e+01	9.353024e-01	
152	5.754399e+01	9.444419e-01	
153	5.821032e+01	9.518260e-01	
154	5.888437e+01	9.578679e-01	
155	5.956621e+01	9.628682e-01	
156	6.025596e+01	9.670494e-01	
157	6.095369e+01	9.705786e-01	
158	6.165950e+01	9.735829e-01	
159	6.237348e+01	9.761602e-01	
160	6.309573e+01	9.783869e-01	
161	6.382635e+01	9.803232e-01	
162	6.456542e+01	9.820170e-01	
163	6.531306e+01	9.835068e-01	
164	6.606934e+01	9.848239e-01	
165	6.683439e+01	9.859938e-01	
166	6.760830e+01	9.870374e-01	
167	6.839116e+01	9.879722e-01	
168	6.918310e+01	9.888127e-01	
169	6.998420e+01	9.895710e-01	
170	7.079458e+01	9.902576e-01	

Index   frequency       vm(out)         
--------------------------------------------------------------------------------
171	7.161434e+01	9.908811e-01	
172	7.244360e+01	9.914489e-01	
173	7.328245e+01	9.919675e-01	
174	7.413102e+01	9.924424e-01	
175	7.498942e+01	9.928783e-01	
176	7.585776e+01	9.932793e-01	
177	7.673615e+01	9.936490e-01	
178	7.762471e+01	9.939907e-01	
179	7.852356e+01	9.943070e-01	
180	7.943282e+01	9.946004e-01	
181	8.035261e+01	9.948730e-01	
182	8.128305e+01	9.951267e-01	
183	8.222426e+01	9.953632e-01	
184	8.317638e+01	9.955841e-01	
185	8.413951e+01	9.957907e-01	
186	8.511380e+01	9.959841e-01	
187	8.609938e+01	9.961655e-01	
188	8.709636e+01	9.963357e-01	
189	8.810489e+01	9.964958e-01	
190	8.912509e+01	9.966465e-01	
191	9.015711e+01	9.967885e-01	
192	9.120108e+01	9.969224e-01	
193	9.225714e+01	9.970489e-01	
194	9.332543e+01	9.971685e-01	
195	9.440609e+01	9.972816e-01	
196	9.549926e+01	9.973887e-01	
197	9.660509e+01	9.974903e-01	
198	9.772372e+01	9.975866e-01	
199	9.885531e+01	9.976781e-01	
200	1.000000e+02	9.977651e-01	

elapsed time since last call: 0.019 seconds.

Total elapsed time: 0.019 seconds.

Total DRAM available = 5867.660156 MB.
DRAM currently available = 376.265625 MB.
Total ngspice program size = 23.546875 MB.
Resident set size = 2.393555 MB.
Shared ngspice pages = 2.137695 MB.
Text (code) pages = 3.245117 MB.
Stack = 0 bytes.
Library pages = 5.996094 MB.

