
Circuit: Filtro paso alta 

Doing analysis at TEMP = 27.000000 and TNOM = 27.000000


No. of Data Rows : 41
                               Filtro paso alta 
                               AC Analysis  Tue Jul  7 18:47:48  2015
--------------------------------------------------------------------------------
Index   frequency       vm(out)         
--------------------------------------------------------------------------------
0	1.000000e-02	3.809869e-02	
1	1.258925e-02	4.794306e-02	
2	1.584893e-02	6.031621e-02	
3	1.995262e-02	7.585294e-02	
4	2.511886e-02	9.533292e-02	
5	3.162278e-02	1.196993e-01	
6	3.981072e-02	1.500650e-01	
7	5.011872e-02	1.876886e-01	
8	6.309573e-02	2.338888e-01	
9	7.943282e-02	2.898480e-01	
10	1.000000e-01	3.562493e-01	
11	1.258925e-01	4.327183e-01	
12	1.584893e-01	5.171756e-01	
13	1.995262e-01	6.054470e-01	
14	2.511886e-01	6.916635e-01	
15	3.162278e-01	7.697005e-01	
16	3.981072e-01	8.350576e-01	
17	5.011872e-01	8.860066e-01	
18	6.309573e-01	9.233952e-01	
19	7.943282e-01	9.495727e-01	
20	1.000000e+00	9.672819e-01	
21	1.258925e+00	9.789789e-01	
22	1.584893e+00	9.865814e-01	
23	1.995262e+00	9.914703e-01	
24	2.511886e+00	9.945926e-01	
25	3.162278e+00	9.965780e-01	
26	3.981072e+00	9.978367e-01	
27	5.011872e+00	9.986334e-01	
28	6.309573e+00	9.991371e-01	
29	7.943282e+00	9.994553e-01	
30	1.000000e+01	9.996562e-01	
31	1.258925e+01	9.997830e-01	
32	1.584893e+01	9.998631e-01	
33	1.995262e+01	9.999136e-01	
34	2.511886e+01	9.999455e-01	
35	3.162278e+01	9.999656e-01	
36	3.981072e+01	9.999783e-01	
37	5.011872e+01	9.999863e-01	
38	6.309573e+01	9.999914e-01	
39	7.943282e+01	9.999945e-01	
40	1.000000e+02	9.999966e-01	

elapsed time since last call: 0.013 seconds.

Total elapsed time: 0.013 seconds.

Total DRAM available = 5867.660156 MB.
DRAM currently available = 439.234375 MB.
Total ngspice program size = 23.546875 MB.
Resident set size = 2.416992 MB.
Shared ngspice pages = 2.165039 MB.
Text (code) pages = 3.245117 MB.
Stack = 0 bytes.
Library pages = 5.996094 MB.

