
Circuit: Filtro paso baja 

Doing analysis at TEMP = 27.000000 and TNOM = 27.000000


No. of Data Rows : 41
                               Filtro paso baja 
                               AC Analysis  Tue Jul  7 21:15:32  2015
--------------------------------------------------------------------------------
Index   frequency       vm(out)         
--------------------------------------------------------------------------------
0	1.000000e-01	1.789387e+02	
1	1.258925e-01	1.789379e+02	
2	1.584893e-01	1.789367e+02	
3	1.995262e-01	1.789348e+02	
4	2.511886e-01	1.789318e+02	
5	3.162278e-01	1.789270e+02	
6	3.981072e-01	1.789194e+02	
7	5.011872e-01	1.789074e+02	
8	6.309573e-01	1.788883e+02	
9	7.943282e-01	1.788582e+02	
10	1.000000e+00	1.788104e+02	
11	1.258925e+00	1.787347e+02	
12	1.584893e+00	1.786150e+02	
13	1.995262e+00	1.784258e+02	
14	2.511886e+00	1.781271e+02	
15	3.162278e+00	1.776568e+02	
16	3.981072e+00	1.769189e+02	
17	5.011872e+00	1.757682e+02	
18	6.309573e+00	1.739894e+02	
19	7.943282e+00	1.712777e+02	
20	1.000000e+01	1.672281e+02	
21	1.258925e+01	1.613598e+02	
22	1.584893e+01	1.532057e+02	
23	1.995262e+01	1.424856e+02	
24	2.511886e+01	1.293171e+02	
25	3.162278e+01	1.143277e+02	
26	3.981072e+01	9.853981e+01	
27	5.011872e+01	8.305990e+01	
28	6.309573e+01	6.876939e+01	
29	7.943282e+01	5.618063e+01	
30	1.000000e+02	4.546394e+01	
31	1.258925e+02	3.655593e+01	
32	1.584893e+02	2.926961e+01	
33	1.995262e+02	2.337294e+01	
34	2.511886e+02	1.863419e+01	
35	3.162278e+02	1.484363e+01	
36	3.981072e+02	1.182118e+01	
37	5.011872e+02	9.416958e+00	
38	6.309573e+02	7.508487e+00	
39	7.943282e+02	5.996893e+00	
40	1.000000e+03	4.802971e+00	

elapsed time since last call: 0.363 seconds.

Total elapsed time: 0.363 seconds.

Total DRAM available = 5867.660156 MB.
DRAM currently available = 2206.132812 MB.
Total ngspice program size = 23.546875 MB.
Resident set size = 2.349609 MB.
Shared ngspice pages = 2.095703 MB.
Text (code) pages = 3.245117 MB.
Stack = 0 bytes.
Library pages = 5.996094 MB.

